123BusV3/ieee123_Curr_Elem.Txt

CIRCUIT ELEMENT CURRENTS

(Currents into element from indicated bus)

Power Delivery Elements

  Bus Phase    Magnitude, A     Angle      (Real)   +j  (Imag)

ELEMENT = "Vsource.SOURCE"
150      1           654.36 /_  158.2 =    -607.62 +j    242.87
150      2           424.53 /_   40.4 =     323.34 +j    275.09
150      3           521.99 /_  -78.6 =     103.25 +j   -511.68
------------
150      0           654.36 /_  -21.8 =     607.62 +j   -242.87
150      0           424.53 /_ -139.6 =    -323.34 +j   -275.09
150      0           521.99 /_  101.4 =    -103.25 +j    511.68

ELEMENT = "Vsource.SOURCEB"
300      1      4.8021E-009 /_  180.0 =  -4.8021E-009 +j         0
300      2      4.8268E-009 /_   59.6 =  2.4447E-009 +j 4.1618E-009
300      3      4.8268E-009 /_  -59.6 =  2.4447E-009 +j -4.1618E-009
------------
300      0      4.8021E-009 /_    0.0 =  4.8021E-009 +j         0
300      0      4.8268E-009 /_ -120.4 =  -2.4447E-009 +j -4.1618E-009
300      0      4.8268E-009 /_  120.4 =  -2.4447E-009 +j 4.1618E-009

ELEMENT = "Transformer.REG1A"
150      1           654.36 /_  -21.8 =     607.62 +j   -242.87
150      2           424.53 /_ -139.6 =    -323.34 +j   -275.09
150      3           521.99 /_  101.4 =    -103.25 +j    511.68
150      0           181.14 /_  178.0 =    -181.03 +j    6.2726
------------
150R     1           630.71 /_  158.2 =    -585.66 +j    234.09
150R     2           409.18 /_   40.4 =     311.66 +j    265.14
150R     3           503.13 /_  -78.6 =     99.514 +j   -493.19
150R     0           174.59 /_   -2.0 =     174.49 +j   -6.0459

ELEMENT = "Line.L115"
149      1           630.71 /_  -21.8 =     585.66 +j   -234.09
149      2           409.18 /_ -139.6 =    -311.66 +j   -265.14
149      3           503.13 /_  101.4 =    -99.514 +j    493.19
------------
1        1           630.71 /_  158.2 =    -585.66 +j    234.09
1        2           409.18 /_   40.4 =     311.66 +j    265.14
1        3           503.13 /_  -78.6 =     99.513 +j   -493.19

ELEMENT = "Line.L1"
1        2           8.9969 /_ -146.9 =    -7.5361 +j   -4.9144
------------
2        2           8.9971 /_   33.1 =     7.5365 +j    4.9142

ELEMENT = "Line.L2"
1        3            46.57 /_   93.0 =    -2.4295 +j    46.506
------------
3        3            46.57 /_  -87.0 =      2.429 +j   -46.507

ELEMENT = "Line.L3"
1        1           612.62 /_  -21.6 =      569.5 +j   -225.78
1        2           400.26 /_ -139.4 =    -304.12 +j   -260.23
1        3           457.11 /_  102.3 =    -97.083 +j    446.68
------------
7        1           612.62 /_  158.4 =     -569.5 +j    225.78
7        2           400.26 /_   40.6 =     304.12 +j    260.23
7        3           457.11 /_  -77.7 =     97.082 +j   -446.68

ELEMENT = "Line.L4"
3        3           18.142 /_   93.0 =   -0.95063 +j    18.117
------------
4        3           18.142 /_  -87.0 =    0.95026 +j   -18.117

ELEMENT = "Line.L5"
3        3           28.428 /_   93.0 =    -1.4784 +j     28.39
------------
5        3           28.429 /_  -87.0 =     1.4778 +j    -28.39

ELEMENT = "Line.L6"
5        3           19.112 /_   93.0 =   -0.99224 +j    19.086
------------
6        3           19.112 /_  -87.0 =    0.99178 +j   -19.086

ELEMENT = "Line.L7"
7        1           603.51 /_  -21.5 =     561.38 +j   -221.52
7        2           400.26 /_ -139.4 =    -304.12 +j   -260.23
7        3           457.11 /_  102.3 =    -97.082 +j    446.68
------------
8        1           603.51 /_  158.5 =    -561.38 +j    221.52
8        2           400.26 /_   40.6 =     304.12 +j    260.23
8        3           457.11 /_  -77.7 =     97.082 +j   -446.68

ELEMENT = "Line.L8"
8        2            9.023 /_ -147.3 =    -7.5938 +j   -4.8732
------------
12       2           9.0232 /_   32.7 =     7.5942 +j     4.873

ELEMENT = "Line.L9"
8        1           46.542 /_  -28.1 =     41.072 +j   -21.892
------------
9        1           46.542 /_  151.9 =    -41.072 +j    21.893

ELEMENT = "Line.L10"
8        1           557.29 /_  -21.0 =     520.31 +j   -199.63
8        2           391.32 /_ -139.3 =    -296.53 +j   -255.35
8        3           457.11 /_  102.3 =    -97.082 +j    446.68
------------
13       1           557.29 /_  159.0 =    -520.31 +j    199.63
13       2           391.32 /_   40.7 =     296.53 +j    255.35
13       3           457.11 /_  -77.7 =     97.081 +j   -446.68

ELEMENT = "Line.L11"
9R       1           28.069 /_  -28.1 =     24.766 +j    -13.21
------------
14       1           28.069 /_  151.9 =    -24.766 +j    13.211

ELEMENT = "Line.L12"
13       3           46.499 /_   92.3 =    -1.8717 +j    46.462
------------
34       3           46.499 /_  -87.7 =     1.8714 +j   -46.462

ELEMENT = "Line.L13"
13       1           229.21 /_  -30.4 =     197.64 +j   -116.08
13       2            155.5 /_ -155.1 =    -141.08 +j   -65.413
13       3           153.76 /_   88.6 =     3.6665 +j    153.72
------------
18       1           229.21 /_  149.6 =    -197.64 +j    116.08
18       2           155.51 /_   24.9 =     141.08 +j    65.411
18       3           153.76 /_  -91.4 =    -3.6687 +j   -153.72

ELEMENT = "Line.L14"
14       1           18.752 /_  -28.1 =     16.545 +j   -8.8266
------------
11       1           18.753 /_  151.9 =    -16.545 +j    8.8272

ELEMENT = "Line.L15"
14       1           9.3169 /_  -28.1 =     8.2209 +j   -4.3843
------------
10       1           9.3171 /_  151.9 =    -8.2209 +j    4.3848

ELEMENT = "Line.L16"
15       3           18.418 /_   92.3 =   -0.73723 +j    18.403
------------
16       3           18.418 /_  -87.7 =    0.73655 +j   -18.403

ELEMENT = "Line.L17"
15       3           9.2039 /_   92.3 =   -0.37034 +j    9.1964
------------
17       3           9.2042 /_  -87.7 =     0.3697 +j   -9.1968

ELEMENT = "Line.L18"
18       1           37.423 /_  -28.9 =     32.762 +j   -18.085
------------
19       1           37.423 /_  151.1 =    -32.762 +j    18.086

ELEMENT = "Line.L19"
18       1           55.964 /_  -29.1 =     48.915 +j   -27.191
18       2             19.1 /_ -147.8 =    -16.162 +j   -10.177
18       3           55.761 /_   92.2 =    -2.1537 +j     55.72
------------
21       1           55.965 /_  150.9 =    -48.915 +j    27.192
21       2             19.1 /_   32.2 =     16.163 +j    10.177
21       3           55.762 /_  -87.8 =     2.1529 +j    -55.72

ELEMENT = "Line.L20"
19       1           18.634 /_  -28.9 =     16.312 +j   -9.0077
------------
20       1           18.634 /_  151.1 =    -16.312 +j    9.0084

ELEMENT = "Line.L21"
21       2           19.102 /_ -147.8 =    -16.167 +j   -10.174
------------
22       2           19.102 /_   32.2 =     16.168 +j    10.174

ELEMENT = "Line.L22"
21       1           55.965 /_  -29.1 =     48.915 +j   -27.192
21       2         0.004627 /_  -34.8 =  0.0037994 +j -0.0026407
21       3           55.762 /_   92.2 =    -2.1529 +j     55.72
------------
23       1           55.965 /_  150.9 =    -48.915 +j    27.193
23       2        0.0038927 /_  145.2 =  -0.0031965 +j 0.0022215
23       3           55.762 /_  -87.8 =     2.1522 +j   -55.721

ELEMENT = "Line.L23"
23       3            18.58 /_   92.2 =   -0.71511 +j    18.566
------------
24       3            18.58 /_  -87.8 =    0.71412 +j   -18.566

ELEMENT = "Line.L24"
23       1           55.965 /_  -29.1 =     48.915 +j   -27.193
23       2        0.0038927 /_  -34.8 =  0.0031965 +j -0.0022215
23       3           37.183 /_   92.2 =    -1.4371 +j    37.155
------------
25       1           55.965 /_  150.9 =    -48.914 +j    27.194
25       2        0.0030848 /_  145.2 =  -0.0025332 +j 0.0017604
25       3           37.183 /_  -87.8 =     1.4364 +j   -37.155

ELEMENT = "Line.L25"
25R      1           18.633 /_  -29.1 =     16.283 +j   -9.0596
25R      3           18.592 /_   92.2 =   -0.71784 +j    18.578
------------
26       1           18.634 /_  150.9 =    -16.283 +j    9.0605
26       3           18.593 /_  -87.8 =    0.71711 +j   -18.579

ELEMENT = "Line.L26"
25       1           37.099 /_  -29.1 =     32.428 +j   -18.021
25       2        0.0030848 /_  -34.8 =  0.0025332 +j -0.0017604
25       3           18.591 /_   92.2 =   -0.71858 +j    18.577
------------
28       1           37.099 /_  150.9 =    -32.428 +j    18.021
28       2        0.0024973 /_  145.2 =  -0.0020507 +j 0.0014251
28       3           18.591 /_  -87.8 =    0.71807 +j   -18.577

ELEMENT = "Line.L27"
26       1           18.634 /_  -29.1 =     16.283 +j   -9.0605
26       3       0.00072577 /_ -142.2 =  -0.00057383 +j -0.00044437
------------
27       1           18.634 /_  150.9 =    -16.283 +j    9.0612
27       3       7.276E-012 /_  -90.0 =          0 +j -7.276E-012

ELEMENT = "Line.L28"
26       3           18.593 /_   92.2 =   -0.71654 +j    18.579
------------
31       3           18.593 /_  -87.8 =    0.71613 +j   -18.579

ELEMENT = "Line.L29"
27       1           18.634 /_  -29.1 =     16.283 +j   -9.0612
------------
33       1           18.634 /_  150.9 =    -16.282 +j    9.0622

ELEMENT = "Line.L30"
28       1           18.465 /_  -29.1 =     16.139 +j   -8.9714
28       2        0.0024973 /_  -34.8 =  0.0020507 +j -0.0014251
28       3           18.591 /_   92.2 =   -0.71807 +j    18.577
------------
29       1           18.465 /_  150.9 =    -16.139 +j    8.9724
29       2        0.0016159 /_  145.2 =  -0.001327 +j 0.00092208
29       3           18.592 /_  -87.8 =    0.71729 +j   -18.578

ELEMENT = "Line.L31"
29       1        0.0018685 /_   83.5 =  0.00021141 +j 0.0018565
29       2        0.0016159 /_  -34.8 =   0.001327 +j -0.00092208
29       3           18.592 /_   92.2 =   -0.71729 +j    18.578
------------
30       1       0.00067945 /_  -96.5 =  -7.6875E-005 +j -0.00067509
30       2       0.00058759 /_  145.2 =  -0.00048254 +j 0.00033529
30       3           18.593 /_  -87.8 =    0.71639 +j   -18.579

ELEMENT = "Line.L32"
30       1       0.00067945 /_   83.5 =  7.6875E-005 +j 0.00067509
30       2       0.00058759 /_  -34.8 =  0.00048254 +j -0.00033529
30       3       0.00064117 /_ -143.6 =  -0.00051638 +j -0.00038007
------------
250      1       7.276E-012 /_   90.0 =          0 +j 7.276E-012
250      2      9.0949E-012 /_ -126.9 =  -5.457E-012 +j -7.276E-012
250      3       1.627E-011 /_  -26.6 =  1.4552E-011 +j -7.276E-012

ELEMENT = "Line.L33"
31       3           9.2983 /_   92.2 =   -0.35778 +j    9.2914
------------
32       3           9.2986 /_  -87.8 =    0.35724 +j   -9.2917

ELEMENT = "Line.L34"
34       3           27.621 /_   92.3 =    -1.1078 +j    27.599
------------
15       3           27.621 /_  -87.7 =     1.1076 +j   -27.599

ELEMENT = "Line.L35"
35       1           18.421 /_  -29.0 =     16.114 +j   -8.9262
35       2           18.428 /_ -147.9 =    -15.617 +j    -9.783
------------
36       1           18.422 /_  151.0 =    -16.114 +j    8.9278
36       2           18.429 /_   32.1 =     15.619 +j    9.7818

ELEMENT = "Line.L36"
35       1           108.72 /_  -35.0 =     89.114 +j   -62.283
35       2           108.37 /_ -155.4 =    -98.568 +j   -45.048
35       3           98.173 /_   86.6 =     5.8235 +j        98
------------
40       1           108.72 /_  145.0 =    -89.114 +j    62.284
40       2           108.37 /_   24.6 =     98.569 +j    45.048
40       3           98.174 /_  -93.4 =    -5.8241 +j   -98.001

ELEMENT = "Line.L37"
36       1           18.422 /_  -29.0 =     16.114 +j   -8.9278
------------
37       1           18.422 /_  151.0 =    -16.114 +j    8.9284

ELEMENT = "Line.L38"
36       2           18.429 /_ -147.9 =    -15.619 +j   -9.7818
------------
38       2           18.429 /_   32.1 =     15.619 +j    9.7816

ELEMENT = "Line.L39"
38       2           9.1124 /_ -147.9 =    -7.7231 +j   -4.8363
------------
39       2           9.1127 /_   32.1 =     7.7237 +j    4.8359

ELEMENT = "Line.L40"
40       3           9.2787 /_   92.2 =   -0.34885 +j    9.2721
------------
41       3            9.279 /_  -87.8 =    0.34826 +j   -9.2725

ELEMENT = "Line.L41"
40       1           108.72 /_  -35.0 =     89.114 +j   -62.284
40       2           108.37 /_ -155.4 =    -98.569 +j   -45.048
40       3           88.943 /_   86.0 =      6.173 +j    88.729
------------
42       1           108.72 /_  145.0 =    -89.114 +j    62.284
42       2           108.38 /_   24.6 =      98.57 +j    45.047
42       3           88.943 /_  -94.0 =    -6.1736 +j   -88.729

ELEMENT = "Line.L42"
42       2           19.012 /_ -148.0 =    -16.123 +j   -10.074
------------
43       2           19.012 /_   32.0 =     16.124 +j    10.074

ELEMENT = "Line.L43"
42       1            99.34 /_  -35.5 =     80.862 +j   -57.705
42       2           89.557 /_ -157.0 =    -82.446 +j   -34.973
42       3           88.943 /_   86.0 =     6.1736 +j    88.729
------------
44       1           99.341 /_  144.5 =    -80.862 +j    57.706
44       2           89.558 /_   23.0 =     82.447 +j    34.973
44       3           88.944 /_  -94.0 =    -6.1742 +j   -88.729

ELEMENT = "Line.L44"
44       1           18.774 /_  -29.1 =     16.409 +j   -9.1216
------------
45       1           18.774 /_  150.9 =    -16.409 +j     9.122

ELEMENT = "Line.L45"
44       1           80.712 /_  -37.0 =     64.452 +j   -48.584
44       2           89.558 /_ -157.0 =    -82.447 +j   -34.973
44       3           88.944 /_   86.0 =     6.1742 +j    88.729
------------
47       1           80.713 /_  143.0 =    -64.452 +j    48.585
47       2           89.558 /_   23.0 =     82.448 +j    34.972
47       3           88.944 /_  -94.0 =    -6.1748 +j   -88.729

ELEMENT = "Line.L46"
45       1           9.4572 /_  -29.1 =     8.2657 +j   -4.5954
------------
46       1           9.4575 /_  150.9 =    -8.2657 +j     4.596

ELEMENT = "Line.L47"
47       1           35.246 /_  -38.1 =     27.752 +j   -21.728
47       2           36.491 /_ -157.0 =    -33.594 +j   -14.248
47       3           35.847 /_   83.1 =     4.3303 +j    35.584
------------
48       1           35.247 /_  141.9 =    -27.752 +j    21.728
48       2           36.491 /_   23.0 =     33.594 +j    14.248
48       3           35.847 /_  -96.9 =    -4.3308 +j   -35.584

ELEMENT = "Line.L48"
47       1           27.584 /_  -35.0 =     22.597 +j   -15.818
47       2            35.16 /_ -157.0 =    -32.368 +j    -13.73
47       3           35.369 /_   90.5 =   -0.31594 +j    35.368
------------
49       1           27.584 /_  145.0 =    -22.597 +j    15.819
49       2            35.16 /_   23.0 =     32.369 +j     13.73
49       3           35.369 /_  -89.5 =    0.31519 +j   -35.368

ELEMENT = "Line.L49"
49       1           9.4615 /_  -29.1 =      8.268 +j   -4.6001
49       2        0.0034509 /_  -27.1 =  0.0030734 +j -0.0015694
49       3           18.612 /_   92.0 =   -0.65497 +j      18.6
------------
50       1           9.4619 /_  150.9 =     -8.268 +j    4.6008
50       2        0.0025884 /_  152.9 =  -0.0023053 +j 0.0011772
50       3           18.612 /_  -88.0 =    0.65422 +j     -18.6

ELEMENT = "Line.L50"
50       1           9.4619 /_  -29.1 =      8.268 +j   -4.6008
50       2        0.0025884 /_  -27.1 =  0.0023053 +j -0.0011772
50       3         0.002403 /_ -159.8 =  -0.0022555 +j -0.0008289
------------
51       1           9.4622 /_  150.9 =     -8.268 +j    4.6015
51       2         0.001726 /_  152.9 =  -0.0015371 +j 0.00078496
51       3        0.0016023 /_   20.2 =   0.001504 +j 0.00055276

ELEMENT = "Line.L51"
51       1        0.0014249 /_   91.5 =  -3.7029E-005 +j 0.0014244
51       2         0.001726 /_  -27.1 =  0.0015371 +j -0.00078496
51       3        0.0016023 /_ -159.8 =  -0.001504 +j -0.00055276
------------
151      1      9.8098E-007 /_  -92.6 =  -4.4775E-008 +j -9.7996E-007
151      2      1.0135E-006 /_  148.4 =  -8.6323E-007 +j 5.3112E-007
151      3      9.9713E-007 /_   28.4 =  8.7739E-007 +j 4.7378E-007

ELEMENT = "Line.L52"
52       1           315.22 /_  -13.7 =     306.28 +j    -74.53
52       2           245.44 /_ -129.3 =    -155.45 +j   -189.94
52       3           265.59 /_  111.9 =    -98.875 +j     246.5
------------
53       1           315.22 /_  166.3 =    -306.28 +j    74.531
53       2           245.44 /_   50.7 =     155.45 +j    189.94
53       3           265.59 /_  -68.1 =     98.874 +j    -246.5

ELEMENT = "Line.L53"
53       1           297.17 /_  -12.7 =     289.88 +j   -65.435
53       2           245.44 /_ -129.3 =    -155.45 +j   -189.94
53       3           265.59 /_  111.9 =    -98.874 +j     246.5
------------
54       1           297.17 /_  167.3 =    -289.88 +j    65.435
54       2           245.44 /_   50.7 =     155.45 +j    189.94
54       3           265.59 /_  -68.1 =     98.874 +j    -246.5

ELEMENT = "Line.L54"
54       1           9.2378 /_  -29.1 =     8.0715 +j   -4.4929
54       2           9.0638 /_ -148.0 =    -7.6859 +j    -4.804
54       3        0.0016036 /_ -155.5 =  -0.0014594 +j -0.00066466
------------
55       1           9.2383 /_  150.9 =    -8.0716 +j    4.4938
55       2           9.0641 /_   32.0 =     7.6867 +j    4.8035
55       3        0.0008018 /_   24.5 =  0.00072968 +j 0.00033234

ELEMENT = "Line.L55"
54       1           288.32 /_  -12.2 =      281.8 +j   -60.942
54       2           236.88 /_ -128.6 =    -147.77 +j   -185.13
54       3           265.59 /_  111.9 =    -98.872 +j     246.5
------------
57       1           288.32 /_  167.8 =     -281.8 +j    60.943
57       2           236.88 /_   51.4 =     147.77 +j    185.13
57       3           265.59 /_  -68.1 =     98.871 +j    -246.5

ELEMENT = "Line.L56"
55       1       0.00087243 /_   96.1 =  -9.222E-005 +j 0.00086754
55       2           9.0641 /_ -148.0 =    -7.6867 +j   -4.8035
55       3        0.0008018 /_ -155.5 =  -0.00072968 +j -0.00033234
------------
56       1      2.5724E-012 /_ -135.0 =  -1.819E-012 +j -1.819E-012
56       2           9.0645 /_   32.0 =     7.6875 +j    4.8029
56       3      1.3117E-011 /_  -33.7 =  1.0914E-011 +j -7.276E-012

ELEMENT = "Line.L57"
57       2           18.412 /_ -148.2 =    -15.649 +j   -9.7015
------------
58       2           18.412 /_   31.8 =     15.649 +j    9.7012

ELEMENT = "Line.L58"
57       1           288.32 /_  -12.2 =      281.8 +j   -60.943
57       2           219.62 /_ -127.0 =    -132.12 +j   -175.43
57       3           265.59 /_  111.9 =    -98.871 +j     246.5
------------
60       1           288.32 /_  167.8 =     -281.8 +j    60.945
60       2           219.62 /_   53.0 =     132.12 +j    175.43
60       3           265.59 /_  -68.1 =     98.869 +j    -246.5

ELEMENT = "Line.L59"
58       2           9.0955 /_ -148.2 =    -7.7307 +j   -4.7921
------------
59       2           9.0958 /_   31.8 =     7.7312 +j    4.7918

ELEMENT = "Line.L60"
60       1        0.0018368 /_   91.5 =  -4.9021E-005 +j 0.0018362
60       2        0.0017542 /_  -40.0 =  0.0013432 +j -0.0011283
60       3        0.0015765 /_ -148.9 =  -0.0013505 +j -0.00081326
------------
61       1      1.2697E-005 /_   86.9 =  6.8425E-007 +j 1.2679E-005
61       2      1.3023E-005 /_  -32.0 =  1.1042E-005 +j -6.9035E-006
61       3      1.2922E-005 /_ -152.7 =  -1.1479E-005 +j -5.934E-006

ELEMENT = "Line.L61"
60       1           45.322 /_  -41.3 =      34.05 +j   -29.911
60       2           52.152 /_ -150.5 =    -45.408 +j    -25.65
60       3           80.685 /_   92.2 =    -3.1219 +j    80.624
------------
62       1           45.326 /_  138.7 =    -34.049 +j    29.919
62       2           52.156 /_   29.5 =     45.415 +j    25.645
62       3           80.688 /_  -87.8 =     3.1151 +j   -80.628

ELEMENT = "Line.L62"
62       1           45.326 /_  -41.3 =     34.049 +j   -29.919
62       2           52.156 /_ -150.5 =    -45.415 +j   -25.645
62       3           62.104 /_   92.5 =    -2.7302 +j    62.044
------------
63       1            45.33 /_  138.7 =    -34.049 +j    29.924
63       2           52.158 /_   29.4 =      45.42 +j    25.643
63       3           62.106 /_  -87.5 =     2.7255 +j   -62.047

ELEMENT = "Line.L63"
63       1           26.946 /_  -49.2 =     17.604 +j   -20.401
63       2           52.158 /_ -150.6 =     -45.42 +j   -25.643
63       3           62.106 /_   92.5 =    -2.7255 +j    62.047
------------
64       1           26.954 /_  130.8 =    -17.604 +j    20.411
64       2           52.163 /_   29.4 =     45.429 +j    25.637
64       3           62.111 /_  -87.5 =     2.7161 +j   -62.052

ELEMENT = "Line.L64"
64       1           26.954 /_  -49.2 =     17.604 +j   -20.411
64       2           17.879 /_ -157.5 =    -16.519 +j    -6.839
64       3           62.111 /_   92.5 =    -2.7161 +j    62.052
------------
65       1           26.963 /_  130.8 =    -17.603 +j    20.424
65       2           17.886 /_   22.5 =      16.53 +j     6.832
65       3           62.116 /_  -87.5 =     2.7047 +j   -62.058

ELEMENT = "Line.L65"
65       1        0.0097299 /_   86.5 =  0.00059601 +j 0.0097116
65       2         0.010091 /_  -31.9 =  0.0085671 +j -0.0053315
65       3           34.836 /_   92.7 =    -1.6412 +j    34.797
------------
66       1      7.9418E-012 /_  166.8 =  -7.7307E-012 +j 1.819E-012
66       2       5.457E-012 /_   90.0 =          0 +j 5.457E-012
66       3            34.84 /_  -87.3 =     1.6325 +j   -34.802

ELEMENT = "Line.L66"
67       1           54.526 /_  -30.4 =     47.021 +j   -27.608
------------
68       1           54.527 /_  149.6 =     -47.02 +j    27.608

ELEMENT = "Line.L67"
67       1           118.53 /_   22.2 =     109.72 +j    44.834
67       2            126.1 /_ -108.1 =    -39.192 +j   -119.85
67       3           132.96 /_  133.6 =    -91.743 +j    96.233
------------
72       1           118.53 /_ -157.8 =    -109.72 +j   -44.833
72       2            126.1 /_   71.9 =     39.193 +j    119.85
72       3           132.96 /_  -46.4 =     91.742 +j   -96.233

ELEMENT = "Line.L68"
67       1           82.964 /_  -30.6 =     71.397 +j   -42.255
67       2           54.281 /_ -148.8 =    -46.454 +j    -28.08
67       3           64.632 /_   91.0 =    -1.1004 +j    64.622
------------
97       1           82.964 /_  149.4 =    -71.397 +j    42.256
97       2           54.282 /_   31.2 =     46.455 +j     28.08
97       3           64.632 /_  -89.0 =     1.0995 +j   -64.623

ELEMENT = "Line.L69"
68       1           45.459 /_  -30.4 =     39.198 +j   -23.023
------------
69       1            45.46 /_  149.6 =    -39.198 +j    23.024

ELEMENT = "Line.L70"
69       1           27.294 /_  -30.4 =     23.532 +j   -13.828
------------
70       1           27.294 /_  149.6 =    -23.532 +j    13.829

ELEMENT = "Line.L71"
70       1             18.2 /_  -30.4 =     15.691 +j   -9.2226
------------
71       1           18.201 /_  149.6 =    -15.691 +j    9.2232

ELEMENT = "Line.L72"
72       3           55.454 /_   90.9 =   -0.84284 +j    55.447
------------
73       3           55.454 /_  -89.1 =    0.84233 +j   -55.447

ELEMENT = "Line.L73"
72       1           118.53 /_   22.2 =     109.72 +j    44.833
72       2            126.1 /_ -108.1 =    -39.193 +j   -119.85
72       3            99.63 /_  155.8 =    -90.899 +j    40.786
------------
76       1           118.53 /_ -157.8 =    -109.72 +j   -44.833
76       2            126.1 /_   71.9 =     39.194 +j    119.85
76       3            99.63 /_  -24.2 =     90.899 +j   -40.787

ELEMENT = "Line.L74"
73       3           37.297 /_   90.9 =   -0.55747 +j    37.292
------------
74       3           37.297 /_  -89.1 =    0.55682 +j   -37.293

ELEMENT = "Line.L75"
74       3           18.208 /_   90.8 =   -0.26901 +j    18.206
------------
75       3           18.208 /_  -89.2 =    0.26826 +j   -18.206

ELEMENT = "Line.L76"
76       1            77.16 /_   60.3 =     38.287 +j    66.991
76       2             77.3 /_  -57.3 =     41.736 +j   -65.064
76       3           76.904 /_ -177.8 =    -76.846 +j   -2.9877
------------
77       1           77.159 /_ -119.7 =    -38.287 +j    -66.99
77       2           77.299 /_  122.7 =    -41.735 +j    65.064
77       3           76.903 /_    2.2 =     76.845 +j     2.987

ELEMENT = "Line.L77"
76       1           32.867 /_    5.0 =      32.74 +j    2.8764
76       2           57.676 /_ -129.9 =    -36.983 +j   -44.258
76       3           20.981 /_  157.0 =    -19.307 +j    8.2111
------------
86       1           32.866 /_ -175.0 =     -32.74 +j   -2.8744
86       2           57.677 /_   50.1 =     36.985 +j    44.257
86       3           20.979 /_  -23.0 =     19.305 +j   -8.2121

ELEMENT = "Line.L78"
77       1           77.159 /_   60.3 =     38.287 +j     66.99
77       2           79.907 /_  -44.3 =     57.221 +j   -55.775
77       3           76.903 /_ -177.8 =    -76.845 +j    -2.987
------------
78       1           77.159 /_ -119.7 =    -38.287 +j    -66.99
78       2           79.906 /_  135.7 =    -57.221 +j    55.774
78       3           76.902 /_    2.2 =     76.844 +j    2.9868

ELEMENT = "Line.L79"
78       1           19.205 /_  -30.6 =      16.53 +j    -9.777
78       2       0.00066773 /_  -28.9 =  0.00058434 +j -0.00032312
78       3       0.00079455 /_ -148.4 =  -0.00067682 +j -0.0004162
------------
79       1           19.205 /_  149.4 =     -16.53 +j    9.7777
79       2      9.7956E-012 /_   68.2 =  3.638E-012 +j 9.0949E-012
79       3       1.627E-011 /_  -63.4 =  7.276E-012 +j -1.4552E-011

ELEMENT = "Line.L80"
78       1            79.79 /_   74.2 =     21.757 +j    76.767
78       2           79.906 /_  -44.3 =      57.22 +j   -55.774
78       3           76.902 /_ -177.8 =    -76.844 +j   -2.9864
------------
80       1           79.789 /_ -105.8 =    -21.757 +j   -76.765
80       2           79.904 /_  135.7 =    -57.219 +j    55.773
80       3             76.9 /_    2.2 =     76.842 +j    2.9855

ELEMENT = "Line.L81"
80       1           79.789 /_   74.2 =     21.757 +j    76.765
80       2             86.3 /_  -32.6 =     72.686 +j   -46.523
80       3             76.9 /_ -177.8 =    -76.842 +j   -2.9855
------------
81       1           79.788 /_ -105.8 =    -21.756 +j   -76.764
81       2           86.299 /_  147.4 =    -72.685 +j    46.523
81       3             76.9 /_    2.2 =     76.842 +j    2.9852

ELEMENT = "Line.L82"
81       1           79.788 /_   74.2 =     21.756 +j    76.764
81       2           86.299 /_  -32.6 =     72.685 +j   -46.523
81       3           82.295 /_ -158.5 =    -76.562 +j    -30.18
------------
82       1           79.787 /_ -105.8 =    -21.756 +j   -76.764
82       2           86.298 /_  147.4 =    -72.684 +j    46.523
82       3           82.295 /_   21.5 =     76.561 +j     30.18

ELEMENT = "Line.L83"
81       3           27.196 /_   90.6 =   -0.27989 +j    27.195
------------
84       3           27.197 /_  -89.4 =    0.27862 +j   -27.196

ELEMENT = "Line.L84"
82       1           86.192 /_   85.8 =      6.271 +j    85.964
82       2           86.298 /_  -32.6 =     72.684 +j   -46.523
82       3           82.295 /_ -158.5 =    -76.561 +j    -30.18
------------
83       1           86.191 /_  -94.2 =    -6.2708 +j   -85.963
83       2           86.298 /_  147.4 =    -72.684 +j    46.522
83       3           82.294 /_   21.5 =      76.56 +j    30.179

ELEMENT = "Line.L85"
84       3           18.138 /_   90.6 =   -0.18368 +j    18.137
------------
85       3           18.139 /_  -89.4 =    0.18279 +j   -18.138

ELEMENT = "Line.L86"
86       1           32.866 /_    5.0 =      32.74 +j    2.8744
86       2           49.218 /_ -126.4 =    -29.214 +j   -39.611
86       3           20.979 /_  157.0 =    -19.305 +j    8.2121
------------
87       1           32.866 /_ -175.0 =     -32.74 +j   -2.8729
87       2           49.218 /_   53.6 =     29.215 +j     39.61
87       3           20.978 /_  -23.0 =     19.303 +j   -8.2129

ELEMENT = "Line.L87"
87       1           20.956 /_   35.3 =     17.106 +j    12.104
------------
88       1           20.955 /_ -144.7 =    -17.106 +j   -12.104

ELEMENT = "Line.L88"
87       1           18.155 /_  -30.6 =     15.633 +j   -9.2311
87       2           33.262 /_ -114.2 =    -13.645 +j   -30.334
87       3           20.978 /_  157.0 =    -19.303 +j    8.2129
------------
89       1           18.156 /_  149.4 =    -15.633 +j    9.2319
89       2           33.262 /_   65.8 =     13.646 +j    30.334
89       3           20.977 /_  -23.1 =     19.303 +j   -8.2134

ELEMENT = "Line.L89"
89       2           21.163 /_  -84.7 =     1.9568 +j   -21.072
------------
90       2           21.162 /_   95.3 =    -1.9564 +j    21.072

ELEMENT = "Line.L90"
89       1           18.156 /_  -30.6 =     15.633 +j   -9.2319
89       2           18.144 /_ -149.3 =    -15.602 +j   -9.2619
89       3           20.977 /_  156.9 =    -19.303 +j    8.2134
------------
91       1           18.156 /_  149.4 =    -15.633 +j    9.2327
91       2           18.145 /_   30.7 =     15.603 +j    9.2616
91       3           20.977 /_  -23.1 =     19.302 +j   -8.2139

ELEMENT = "Line.L91"
91       3           20.976 /_  156.9 =      -19.3 +j    8.2148
------------
92       3           20.975 /_  -23.1 =       19.3 +j   -8.2151

ELEMENT = "Line.L92"
91       1           18.156 /_  -30.6 =     15.633 +j   -9.2327
91       2           18.145 /_ -149.3 =    -15.603 +j   -9.2616
91       3        0.0018535 /_ -148.4 =  -0.0015789 +j -0.00097082
------------
93       1           18.156 /_  149.4 =    -15.633 +j    9.2334
93       2           18.145 /_   30.7 =     15.604 +j    9.2613
93       3        0.0010592 /_   31.6 =  0.00090226 +j 0.00055476

ELEMENT = "Line.L93"
93       1           18.156 /_  -30.6 =     15.633 +j   -9.2343
------------
94       1           18.157 /_  149.4 =    -15.633 +j    9.2349

ELEMENT = "Line.L94"
93       1       0.00098544 /_   78.2 =  0.00020191 +j 0.00096453
93       2           18.145 /_ -149.3 =    -15.604 +j   -9.2613
93       3        0.0010592 /_ -148.4 =  -0.00090226 +j -0.00055476
------------
...