123BusV3/ieee123_Power_elem_kVA.txt

CIRCUIT ELEMENT POWER FLOW

(Power Flow into element from indicated Bus)

Power Delivery Elements

  Bus Phase     kW     +j   kvar         kVA         PF

ELEMENT = "Vsource.source"
150     1     -1459.4 +j   -583.3     1571.6       0.9286
150     2      -960.5 +j   -342.2     1019.6       0.9420
150     3     -1188.3 +j   -399.7     1253.7       0.9478
   TERMINAL TOTAL -3608.1 +j  -1325.2     3843.8       0.9387
150     0         0.0 +j      0.0        0.0       1.0000
150     0         0.0 +j      0.0        0.0       1.0000
150     0         0.0 +j      0.0        0.0       1.0000
   TERMINAL TOTAL     0.0 +j      0.0        0.0       1.0000

ELEMENT = "Vsource.sourceb"
300     1         0.0 +j      0.0        0.0       1.0000
300     2         0.0 +j      0.0        0.0       1.0000
300     3         0.0 +j      0.0        0.0      -1.0000
   TERMINAL TOTAL     0.0 +j      0.0        0.0       1.0000
300     0         0.0 +j      0.0        0.0       1.0000
300     0         0.0 +j      0.0        0.0       1.0000
300     0         0.0 +j      0.0        0.0       1.0000
   TERMINAL TOTAL     0.0 +j      0.0        0.0       1.0000

ELEMENT = "Transformer.reg1a"
150      1      1459.4 +j    583.3     1571.6       0.9286
150      2       960.5 +j    342.2     1019.6       0.9420
150      3      1188.3 +j    399.7     1253.7       0.9478
150      0         0.0 +j     -0.0        0.0       1.0000
   TERMINAL TOTAL  3608.1 +j   1325.2     3843.8       0.9387
150R     1     -1459.4 +j   -583.3     1571.6       0.9286
150R     2      -960.5 +j   -342.2     1019.6       0.9420
150R     3     -1188.3 +j   -399.7     1253.7       0.9478
150R     0         0.0 +j      0.0        0.0       1.0000
   TERMINAL TOTAL -3608.1 +j  -1325.1     3843.8       0.9387

ELEMENT = "Line.l115"
149      1      1459.4 +j    582.9     1571.5       0.9287
149      2       960.5 +j    342.0     1019.6       0.9421
149      3      1188.3 +j    399.4     1253.6       0.9479
   TERMINAL TOTAL  3608.1 +j   1324.3     3843.5       0.9388
1        1     -1448.1 +j   -559.6     1552.5       0.9328
1        2      -960.1 +j   -336.0     1017.2       0.9439
1        3     -1180.7 +j   -388.2     1242.9       0.9500
   TERMINAL TOTAL -3588.8 +j  -1283.8     3811.5       0.9416

ELEMENT = "Line.l1"
1        2         0.0 +j      0.0        0.0       0.7023
   TERMINAL TOTAL     0.0 +j      0.0        0.0       0.7023

ELEMENT = "Line.l2"
1        3         0.1 +j      0.1        0.2       0.7023
   TERMINAL TOTAL     0.1 +j      0.1        0.2       0.7023

ELEMENT = "Line.l3"
1        1      1408.1 +j    539.6     1507.9       0.9338
1        2       940.1 +j    326.0      995.0       0.9448
1        3      1077.8 +j    336.7     1129.2       0.9545
   TERMINAL TOTAL  3426.0 +j   1202.3     3630.8       0.9436
7        1     -1399.6 +j   -523.2     1494.2       0.9367
7        2      -939.9 +j   -321.3      993.3       0.9462
7        3     -1073.3 +j   -330.1     1122.9       0.9558
   TERMINAL TOTAL -3412.8 +j  -1174.6     3609.3       0.9456

ELEMENT = "Line.l4"
3        3         0.0 +j      0.0        0.0       0.7023
   TERMINAL TOTAL     0.0 +j      0.0        0.0       0.7023

ELEMENT = "Line.l5"
3        3         0.1 +j      0.1        0.1       0.7023
   TERMINAL TOTAL     0.1 +j      0.1        0.1       0.7023

ELEMENT = "Line.l6"
5        3         0.0 +j      0.0        0.0       0.7023
   TERMINAL TOTAL     0.0 +j      0.0        0.0       0.7023

ELEMENT = "Line.l7"
7        1      1379.6 +j    513.2     1472.0       0.9372
7        2       939.9 +j    321.3      993.3       0.9462
7        3      1073.3 +j    330.1     1122.9       0.9558
   TERMINAL TOTAL  3392.8 +j   1164.6     3587.1       0.9458
8        1     -1374.1 +j   -502.7     1463.2       0.9391
8        2      -939.7 +j   -318.2      992.1       0.9472
8        3     -1070.3 +j   -325.7     1118.7       0.9567
   TERMINAL TOTAL -3384.2 +j  -1146.5     3573.1       0.9471

ELEMENT = "Line.l8"
8        2         0.0 +j      0.0        0.0       0.7023
   TERMINAL TOTAL     0.0 +j      0.0        0.0       0.7023

ELEMENT = "Line.l9"
8        1         0.1 +j      0.1        0.2       0.7023
   TERMINAL TOTAL     0.1 +j      0.1        0.2       0.7023

ELEMENT = "Line.l10"
8        1      1273.3 +j    452.1     1351.1       0.9424
8        2       919.7 +j    308.2      970.0       0.9482
8        3      1070.3 +j    325.7     1118.7       0.9567
   TERMINAL TOTAL  3263.3 +j   1086.0     3439.2       0.9488
13       1     -1266.5 +j   -438.9     1340.4       0.9449
13       2      -919.1 +j   -303.8      968.0       0.9495
13       3     -1065.9 +j   -318.6     1112.5       0.9581
   TERMINAL TOTAL -3251.5 +j  -1061.3     3420.3       0.9506

ELEMENT = "Line.l11"
9R       1         0.1 +j      0.1        0.1       0.7023
   TERMINAL TOTAL     0.1 +j      0.1        0.1       0.7023

ELEMENT = "Line.l12"
13       3         0.1 +j      0.1        0.1       0.7023
   TERMINAL TOTAL     0.1 +j      0.1        0.1       0.7023

ELEMENT = "Line.l13"
13       1       484.2 +j    263.5      551.3       0.8784
13       2       318.3 +j    215.9      384.6       0.8276
13       3       323.2 +j    188.6      374.2       0.8637
   TERMINAL TOTAL  1125.8 +j    668.0     1309.1       0.8600
18       1      -481.8 +j   -257.5      546.3       0.8819
18       2      -318.0 +j   -213.7      383.1       0.8300
18       3      -321.1 +j   -186.9      371.5       0.8643
   TERMINAL TOTAL -1120.9 +j   -658.1     1299.8       0.8624

ELEMENT = "Line.l14"
14       1         0.0 +j      0.0        0.0       0.7023
   TERMINAL TOTAL     0.0 +j      0.0        0.0       0.7023

ELEMENT = "Line.l15"
14       1         0.0 +j      0.0        0.0       0.7023
   TERMINAL TOTAL     0.0 +j      0.0        0.0       0.7023

ELEMENT = "Line.l16"
15       3         0.0 +j      0.0        0.0       0.7023
   TERMINAL TOTAL     0.0 +j      0.0        0.0       0.7023

ELEMENT = "Line.l17"
15       3         0.0 +j      0.0        0.0       0.7023
   TERMINAL TOTAL     0.0 +j      0.0        0.0       0.7023

ELEMENT = "Line.l18"
18       1         0.1 +j      0.1        0.1       0.7023
   TERMINAL TOTAL     0.1 +j      0.1        0.1       0.7023

ELEMENT = "Line.l19"
18       1       119.1 +j     60.1      133.4       0.8928
18       2        42.1 +j     21.0       47.1       0.8944
18       3       120.4 +j     60.4      134.7       0.8940
   TERMINAL TOTAL   281.6 +j    141.5      315.2       0.8936
21       1      -119.1 +j    -59.9      133.3       0.8932
21       2       -42.1 +j    -21.1       47.1       0.8943
21       3      -120.3 +j    -60.2      134.6       0.8942
   TERMINAL TOTAL  -281.5 +j   -141.2      314.9       0.8938

ELEMENT = "Line.l20"
19       1         0.0 +j      0.0        0.0       0.7023
   TERMINAL TOTAL     0.0 +j      0.0        0.0       0.7023

ELEMENT = "Line.l21"
21       2         0.0 +j      0.0        0.1       0.7023
   TERMINAL TOTAL     0.0 +j      0.0        0.1       0.7023

ELEMENT = "Line.l22"
21       1       119.1 +j     59.9      133.3       0.8932
21       2         0.0 +j     -0.0        0.0      -0.0623
21       3       120.3 +j     60.2      134.6       0.8942
   TERMINAL TOTAL   239.4 +j    120.2      267.9       0.8937
23       1      -119.1 +j    -59.8      133.3       0.8937
23       2        -0.0 +j      0.0        0.0      -0.0626
23       3      -120.2 +j    -60.1      134.4       0.8943
   TERMINAL TOTAL  -239.3 +j   -119.9      267.7       0.8940

ELEMENT = "Line.l23"
23       3         0.0 +j      0.0        0.1       0.7023
   TERMINAL TOTAL     0.0 +j      0.0        0.1       0.7023

ELEMENT = "Line.l24"
23       1       119.1 +j     59.8      133.3       0.8937
23       2         0.0 +j     -0.0        0.0      -0.0626
23       3        80.2 +j     40.1       89.6       0.8943
   TERMINAL TOTAL   199.2 +j     99.9      222.9       0.8939
25       1      -119.1 +j    -59.6      133.2       0.8941
25       2        -0.0 +j      0.0        0.0      -0.0627
25       3       -80.1 +j    -40.1       89.5       0.8943
   TERMINAL TOTAL  -199.2 +j    -99.7      222.7       0.8942

ELEMENT = "Line.l25"
25R      1        40.1 +j     20.1       44.9       0.8939
25R      3        40.0 +j     20.0       44.8       0.8943
   TERMINAL TOTAL    80.2 +j     40.2       89.7       0.8941
26       1       -40.1 +j    -20.1       44.9       0.8941
26       3       -40.0 +j    -20.0       44.8       0.8943
   TERMINAL TOTAL   -80.2 +j    -40.1       89.6       0.8942

ELEMENT = "Line.l26"
25       1        78.9 +j     39.5       88.3       0.8942
25       2         0.0 +j     -0.0        0.0      -0.0627
25       3        40.0 +j     20.0       44.8       0.8943
   TERMINAL TOTAL   119.0 +j     59.6      133.1       0.8942
28       1       -78.9 +j    -39.5       88.2       0.8944
28       2        -0.0 +j      0.0        0.0      -0.0627
28       3       -40.0 +j    -20.0       44.8       0.8943
   TERMINAL TOTAL  -119.0 +j    -59.5      133.0       0.8944

ELEMENT = "Line.l27"
26       1        40.1 +j     20.1       44.9       0.8941
26       3        -0.0 +j     -0.0        0.0       0.1559
   TERMINAL TOTAL    40.1 +j     20.1       44.9       0.8941
27       1       -40.1 +j    -20.1       44.9       0.8942
27       3         0.0 +j      0.0        0.0       1.0000
   TERMINAL TOTAL   -40.1 +j    -20.1       44.9       0.8942

ELEMENT = "Line.l28"
26       3         0.0 +j      0.0        0.0       0.7023
   TERMINAL TOTAL     0.0 +j      0.0        0.0       0.7023

ELEMENT = "Line.l29"
27       1         0.0 +j      0.0        0.1       0.7023
   TERMINAL TOTAL     0.0 +j      0.0        0.1       0.7023

ELEMENT = "Line.l30"
28       1        39.3 +j     19.7       43.9       0.8943
28       2         0.0 +j     -0.0        0.0      -0.0627
28       3        40.0 +j     20.0       44.8       0.8943
   TERMINAL TOTAL    79.3 +j     39.7       88.7       0.8943
29       1       -39.3 +j    -19.6       43.9       0.8945
29       2        -0.0 +j      0.0        0.0      -0.0628
29       3       -40.0 +j    -20.0       44.7       0.8943
   TERMINAL TOTAL   -79.3 +j    -39.7       88.7       0.8944

ELEMENT = "Line.l31"
29       1         0.0 +j     -0.0        0.0      -0.0695
29       2         0.0 +j     -0.0        0.0      -0.0628
29       3        40.0 +j     20.0       44.7       0.8943
   TERMINAL TOTAL    40.0 +j     20.0       44.7       0.8944
30       1        -0.0 +j      0.0        0.0      -0.0694
30       2        -0.0 +j      0.0        0.0      -0.0630
30       3       -40.0 +j    -20.0       44.7       0.8944
   TERMINAL TOTAL   -40.0 +j    -20.0       44.7       0.8945

ELEMENT = "Line.l32"
30       1         0.0 +j     -0.0        0.0      -0.0694
30       2         0.0 +j     -0.0        0.0      -0.0630
30       3        -0.0 +j     -0.0        0.0       0.1320
   TERMINAL TOTAL     0.0 +j     -0.0        0.0      -0.0000
250      1         0.0 +j     -0.0        0.0      -0.9990
250      2        -0.0 +j     -0.0        0.0       0.2948
250      3         0.0 +j      0.0        0.0       0.8765
   TERMINAL TOTAL     0.0 +j     -0.0        0.0      -0.6827

ELEMENT = "Line.l33"
31       3         0.0 +j      0.0        0.0       0.7023
   TERMINAL TOTAL     0.0 +j      0.0        0.0       0.7023

ELEMENT = "Line.l34"
34       3         0.0 +j      0.0        0.0       0.7023
   TERMINAL TOTAL     0.0 +j      0.0        0.0       0.7023

ELEMENT = "Line.l35"
35       1        39.2 +j     19.6       43.8       0.8942
35       2        40.5 +j     20.3       45.3       0.8940
   TERMINAL TOTAL    79.6 +j     39.9       89.1       0.8941
36       1       -39.1 +j    -19.6       43.7       0.8943
36       2       -40.5 +j    -20.3       45.3       0.8943
   TERMINAL TOTAL   -79.6 +j    -39.8       89.0       0.8943

ELEMENT = "Line.l36"
35       1       217.8 +j    139.1      258.4       0.8428
35       2       220.5 +j    149.4      266.3       0.8278
35       3       200.6 +j    126.1      236.9       0.8465
   TERMINAL TOTAL   638.8 +j    414.6      761.6       0.8388
40       1      -217.6 +j   -138.7      258.0       0.8432
40       2      -220.3 +j   -149.1      266.0       0.8283
40       3      -200.4 +j   -125.9      236.7       0.8469
   TERMINAL TOTAL  -638.3 +j   -413.6      760.6       0.8392

ELEMENT = "Line.l37"
36       1         0.0 +j      0.0        0.0       0.7023
   TERMINAL TOTAL     0.0 +j      0.0        0.0       0.7023

ELEMENT = "Line.l38"
36       2         0.0 +j      0.0        0.0       0.7023
   TERMINAL TOTAL     0.0 +j      0.0        0.0       0.7023

ELEMENT = "Line.l39"
38       2         0.0 +j      0.0        0.0       0.7023
   TERMINAL TOTAL     0.0 +j      0.0        0.0       0.7023

ELEMENT = "Line.l40"
40       3         0.0 +j      0.0        0.0       0.7023
   TERMINAL TOTAL     0.0 +j      0.0        0.0       0.7023

ELEMENT = "Line.l41"
40       1       217.6 +j    138.7      258.0       0.8432
40       2       220.3 +j    149.1      266.0       0.8283
40       3       180.4 +j    115.9      214.4       0.8415
   TERMINAL TOTAL   618.3 +j    403.6      738.4       0.8374
42       1      -217.3 +j   -138.4      257.6       0.8435
42       2      -220.2 +j   -148.7      265.7       0.8288
42       3      -180.4 +j   -115.6      214.2       0.8418
   TERMINAL TOTAL  -617.9 +j   -402.7      737.5       0.8378

ELEMENT = "Line.l42"
42       2         0.0 +j      0.0        0.1       0.7023
   TERMINAL TOTAL     0.0 +j      0.0        0.1       0.7023

ELEMENT = "Line.l43"
42       1       197.3 +j    128.4      235.4       0.8382
42       2       178.6 +j    127.8      219.6       0.8131
42       3       180.4 +j    115.6      214.2       0.8418
   TERMINAL TOTAL   556.2 +j    371.8      669.0       0.8313
44       1      -197.1 +j   -128.1      235.1       0.8385
44       2      -178.5 +j   -127.7      219.4       0.8134
44       3      -180.3 +j   -115.4      214.1       0.8421
   TERMINAL TOTAL  -555.9 +j   -371.2      668.4       0.8316

ELEMENT = "Line.l44"
44       1         0.0 +j      0.0        0.0       0.7023
   TERMINAL TOTAL     0.0 +j      0.0        0.0       0.7023

ELEMENT = "Line.l45"
44       1       157.4 +j    108.2      191.0       0.8240
44       2       178.5 +j    127.7      219.4       0.8134
44       3       180.3 +j    115.4      214.1       0.8421
   TERMINAL TOTAL   516.1 +j    351.3      624.4       0.8267
47       1      -157.3 +j   -108.1      190.8       0.8242
47       2      -178.4 +j   -127.4      219.2       0.8137
47       3      -180.2 +j   -115.2      213.9       0.8426
   TERMINAL TOTAL  -515.8 +j   -350.7      623.7       0.8270

ELEMENT = "Line.l46"
45       1         0.0 +j      0.0        0.0       0.7023
   TERMINAL TOTAL     0.0 +j      0.0        0.0       0.7023

ELEMENT = "Line.l47"
47       1        67.8 +j     48.4       83.3       0.8137
47       2        72.7 +j     51.9       89.3       0.8137
47       3        70.1 +j     50.1       86.2       0.8136
   TERMINAL TOTAL   210.6 +j    150.5      258.8       0.8137
48       1       -67.8 +j    -48.4       83.3       0.8137
48       2       -72.7 +j    -51.9       89.3       0.8137
48       3       -70.1 +j    -50.1       86.2       0.8137
   TERMINAL TOTAL  -210.6 +j   -150.4      258.8       0.8137

ELEMENT = "Line.l48"
47       1        55.0 +j     35.0       65.2       0.8436
47       2        70.0 +j     50.0       86.1       0.8137
47       3        75.0 +j     40.1       85.0       0.8822
   TERMINAL TOTAL   200.1 +j    125.1      235.9       0.8479
49       1       -55.0 +j    -35.0       65.2       0.8436
49       2       -70.0 +j    -50.0       86.0       0.8138
49       3       -75.0 +j    -40.0       85.0       0.8823
   TERMINAL TOTAL  -200.0 +j   -125.0      235.9       0.8480

ELEMENT = "Line.l49"
49       1        20.0 +j     10.0       22.4       0.8944
49       2        -0.0 +j     -0.0        0.0       0.0773
49       3        40.0 +j     20.0       44.7       0.8944
   TERMINAL TOTAL    60.0 +j     30.0       67.1       0.8945
50       1       -20.0 +j    -10.0       22.4       0.8945
50       2         0.0 +j      0.0        0.0       0.0771
50       3       -40.0 +j    -20.0       44.7       0.8945
   TERMINAL TOTAL   -60.0 +j    -30.0       67.1       0.8945

ELEMENT = "Line.l50"
50       1        20.0 +j     10.0       22.4       0.8945
50       2        -0.0 +j     -0.0        0.0       0.0771
50       3         0.0 +j     -0.0        0.0      -0.1460
   TERMINAL TOTAL    20.0 +j     10.0       22.4       0.8947
51       1       -20.0 +j    -10.0       22.4       0.8945
51       2         0.0 +j      0.0        0.0       0.0771
51       3        -0.0 +j      0.0        0.0      -0.1460
   TERMINAL TOTAL   -20.0 +j    -10.0       22.4       0.8946

ELEMENT = "Line.l51"
51       1        -0.0 +j     -0.0        0.0       0.0703
51       2        -0.0 +j     -0.0        0.0       0.0771
51       3         0.0 +j     -0.0        0.0      -0.1460
   TERMINAL TOTAL     0.0 +j     -0.0        0.0      -0.0000
151      1        -0.0 +j      0.0        0.0      -0.0013
151      2        -0.0 +j      0.0        0.0      -0.0023
151      3        -0.0 +j      0.0        0.0      -0.0036
   TERMINAL TOTAL    -0.0 +j      0.0        0.0      -0.0024

ELEMENT = "Line.l52"
52       1       738.7 +j    149.1      753.6       0.9802
52       2       600.4 +j     85.1      606.4       0.9901
52       3       639.8 +j     76.2      644.3       0.9930
   TERMINAL TOTAL  1978.8 +j    310.5     2003.0       0.9879
53       1      -737.1 +j   -146.4      751.5       0.9808
53       2      -600.1 +j    -83.8      605.9       0.9904
53       3      -639.0 +j    -74.6      643.3       0.9932
   TERMINAL TOTAL -1976.1 +j   -304.9     1999.5       0.9883

ELEMENT = "Line.l53"
53       1       697.1 +j    126.4      708.5       0.9839
53       2       600.1 +j     83.8      605.9       0.9904
53       3       639.0 +j     74.6      643.3       0.9932
   TERMINAL TOTAL  1936.1 +j    284.9     1957.0       0.9893
54       1      -696.2 +j   -125.0      707.4       0.9843
54       2      -599.9 +j    -83.0      605.6       0.9906
54       3      -638.4 +j    -73.6      642.7       0.9934
   TERMINAL TOTAL -1934.6 +j   -281.6     1954.9       0.9896

ELEMENT = "Line.l54"
54       1        19.7 +j      9.8       22.0       0.8945
54       2        20.0 +j     10.0       22.4       0.8944
54       3         0.0 +j     -0.0        0.0      -0.0688
   TERMINAL TOTAL    39.7 +j     19.8       44.4       0.8945
55       1       -19.7 +j     -9.8       22.0       0.8945
55       2       -20.0 +j    -10.0       22.4       0.8944
55       3        -0.0 +j      0.0        0.0      -0.0689
   TERMINAL TOTAL   -39.7 +j    -19.8       44.3       0.8945

ELEMENT = "Line.l55"
54       1       676.6 +j    115.2      686.3       0.9858
54       2       579.9 +j     73.0      584.4       0.9922
54       3       638.4 +j     73.6      642.7       0.9934
   TERMINAL TOTAL  1894.9 +j    261.8     1912.9       0.9906
57       1      -675.0 +j   -111.2      684.1       0.9867
57       2      -578.5 +j    -70.7      582.8       0.9926
57       3      -637.1 +j    -71.0      641.0       0.9938
   TERMINAL TOTAL -1890.6 +j   -253.0     1907.5       0.9912

ELEMENT = "Line.l56"
55       1        -0.0 +j     -0.0        0.0       0.1498
55       2        20.0 +j     10.0       22.4       0.8944
55       3         0.0 +j     -0.0        0.0      -0.0689
   TERMINAL TOTAL    20.0 +j     10.0       22.4       0.8945
56       1        -0.0 +j     -0.0        0.0       0.9134
56       2       -20.0 +j    -10.0       22.4       0.8944
56       3        -0.0 +j     -0.0        0.0       0.8794
   TERMINAL TOTAL   -20.0 +j    -10.0       22.4       0.8944

ELEMENT = "Line.l57"
57       2         0.0 +j      0.0        0.0       0.7023
   TERMINAL TOTAL     0.0 +j      0.0        0.0       0.7023

ELEMENT = "Line.l58"
57       1       675.0 +j    111.2      684.1       0.9867
57       2       538.0 +j     50.5      540.4       0.9956
57       3       637.1 +j     71.0      641.0       0.9938
   TERMINAL TOTAL  1850.1 +j    232.7     1864.7       0.9922
60       1      -671.8 +j   -102.5      679.6       0.9886
60       2      -535.7 +j    -46.5      537.7       0.9962
60       3      -633.8 +j    -65.6      637.2       0.9947
   TERMINAL TOTAL -1841.3 +j   -214.7     1853.7       0.9933

ELEMENT = "Line.l59"
58       2         0.0 +j      0.0        0.0       0.7023
   TERMINAL TOTAL     0.0 +j      0.0        0.0       0.7023

ELEMENT = "Line.l60"
60       1        -0.0 +j     -0.0        0.0       0.0881
60       2         0.0 +j     -0.0        0.0      -0.1394
60       3        -0.0 +j     -0.0        0.0       0.0574
   TERMINAL TOTAL     0.0 +j     -0.0        0.0      -0.0000
61       1        -0.0 +j     -0.0        0.0       0.0076
61       2        -0.0 +j     -0.0        0.0       0.0001
61       3         0.0 +j     -0.0        0.0      -0.0075
   TERMINAL TOTAL    -0.0 +j     -0.0        0.0       0.0000

ELEMENT = "Line.l61"
60       1        84.4 +j     65.4      106.8       0.7905
60       2       112.2 +j     61.0      127.7       0.8787
60       3       174.6 +j     83.5      193.6       0.9022
   TERMINAL TOTAL   371.3 +j    209.9      426.5       0.8705
62       1       -84.4 +j    -65.4      106.7       0.7903
62       2      -112.0 +j    -61.0      127.6       0.8784
62       3      -174.3 +j    -83.3      193.2       0.9023
   TERMINAL TOTAL  -370.7 +j   -209.7      425.9       0.8704

ELEMENT = "Line.l62"
62       1        84.4 +j     65.4      106.7       0.7903
62       2       112.0 +j     61.0      127.6       0.8784
62       3       134.5 +j     63.4      148.7       0.9046
   TERMINAL TOTAL   330.9 +j    189.8      381.5       0.8675
63       1       -84.3 +j    -65.4      106.7       0.7902
63       2      -111.9 +j    -60.9      127.5       0.8783
63       3      -134.4 +j    -63.3      148.5       0.9046
   TERMINAL TOTAL  -330.6 +j   -189.6      381.1       0.8674

ELEMENT = "Line.l63"
63       1        44.3 +j     45.4       63.4       0.6984
63       2       111.9 +j     60.9      127.5       0.8783
63       3       134.4 +j     63.3      148.5       0.9046
   TERMINAL TOTAL   290.6 +j    169.6      336.5       0.8636
64       1       -44.3 +j    -45.4       63.4       0.6980
64       2      -111.7 +j    -60.9      127.2       0.8779
64       3      -134.1 +j    -63.1      148.2       0.9048
   TERMINAL TOTAL  -290.1 +j   -169.5      335.9       0.8634

ELEMENT = "Line.l64"
64       1        44.3 +j     45.4       63.4       0.6980
64       2        35.5 +j     25.4       43.6       0.8135
64       3       134.1 +j     63.1      148.2       0.9048
   TERMINAL TOTAL   213.9 +j    133.9      252.3       0.8476
65       1       -44.2 +j    -45.4       63.4       0.6979
65       2       -35.4 +j    -25.4       43.6       0.8127
65       3      -133.7 +j    -62.9      147.8       0.9048
   TERMINAL TOTAL  -213.4 +j   -133.8      251.9       0.8473

ELEMENT = "Line.l65"
65       1         0.0 +j     -0.0        0.0      -0.0002
65       2        -0.0 +j     -0.0        0.0       0.0002
65       3        75.1 +j     35.0       82.9       0.9063
   TERMINAL TOTAL    75.1 +j     35.0       82.9       0.9065
66       1         0.0 +j      0.0        0.0       0.6048
66       2         0.0 +j     -0.0        0.0      -0.7291
66       3       -75.0 +j    -35.0       82.8       0.9062
   TERMINAL TOTAL   -75.0 +j    -35.0       82.8       0.9062

ELEMENT = "Line.l66"
67       1         0.1 +j      0.2        0.2       0.7023
   TERMINAL TOTAL     0.1 +j      0.2        0.2       0.7023

ELEMENT = "Line.l67"
67       1       263.1 +j   -128.4      292.8      -0.8987
67       2       302.9 +j    -76.1      312.3      -0.9699
67       3       315.5 +j    -90.5      328.2      -0.9612
   TERMINAL TOTAL   881.6 +j   -295.0      929.6      -0.9483
72       1      -263.0 +j    128.9      292.9      -0.8980
72       2      -302.5 +j     76.5      312.1      -0.9695
72       3      -315.3 +j     91.1      328.2      -0.9607
   TERMINAL TOTAL  -880.8 +j    296.5      929.4      -0.9477

ELEMENT = "Line.l68"
67       1       182.9 +j     92.5      204.9       0.8923
67       2       120.2 +j     60.3      134.4       0.8938
67       3       142.6 +j     71.6      159.6       0.8938
   TERMINAL TOTAL   445.6 +j    224.4      498.9       0.8932
97       1      -182.8 +j    -92.3      204.7       0.8927
97       2      -120.1 +j    -60.2      134.4       0.8940
97       3      -142.5 +j    -71.5      159.4       0.8939
   TERMINAL TOTAL  -445.4 +j   -224.0      498.6       0.8934

ELEMENT = "Line.l69"
68       1         0.1 +j      0.1        0.2       0.7023
   TERMINAL TOTAL     0.1 +j      0.1        0.2       0.7023

ELEMENT = "Line.l70"
69       1         0.1 +j      0.1        0.1       0.7023
   TERMINAL TOTAL     0.1 +j      0.1        0.1       0.7023

ELEMENT = "Line.l71"
70       1         0.0 +j      0.0        0.0       0.7023
   TERMINAL TOTAL     0.0 +j      0.0        0.0       0.7023

ELEMENT = "Line.l72"
72       3         0.2 +j      0.2        0.3       0.7023
   TERMINAL TOTAL     0.2 +j      0.2        0.3       0.7023

ELEMENT = "Line.l73"
72       1       263.0 +j   -128.9      292.9      -0.8980
72       2       302.5 +j    -76.5      312.1      -0.9695
72       3       192.9 +j   -152.5      245.9      -0.7845
   TERMINAL TOTAL   758.4 +j   -357.9      838.6      -0.9044
76       1      -262.8 +j    129.2      292.9      -0.8975
76       2      -302.3 +j     77.0      311.9      -0.9691
76       3      -192.9 +j    152.8      246.1      -0.7839
   TERMINAL TOTAL  -758.0 +j    358.9      838.7      -0.9038

ELEMENT = "Line.l74"
73       3         0.1 +j      0.1        0.2       0.7023
   TERMINAL TOTAL     0.1 +j      0.1        0.2       0.7023

ELEMENT = "Line.l75"
74       3         0.0 +j      0.0        0.0       0.7023
   TERMINAL TOTAL     0.0 +j      0.0        0.0       0.7023

ELEMENT = "Line.l76"
76       1        83.0 +j   -171.6      190.6      -0.4353
76       2        80.6 +j   -173.4      191.2      -0.4214
76       3        81.0 +j   -171.8      189.9      -0.4262
   TERMINAL TOTAL   244.5 +j   -516.8      571.8      -0.4277
77       1       -82.9 +j    171.9      190.9      -0.4343
77       2       -80.4 +j    173.7      191.4      -0.4201
77       3       -80.8 +j    172.1      190.1      -0.4250
   TERMINAL TOTAL  -244.1 +j    517.7      572.3      -0.4265

ELEMENT = "Line.l77"
76       1        80.2 +j    -12.7       81.2      -0.9878
76       2       141.4 +j     18.6      142.7       0.9915
76       3        40.0 +j    -33.0       51.8      -0.7716
   TERMINAL TOTAL   261.6 +j    -27.0      263.0      -0.9947
86       1       -80.1 +j     12.7       81.1      -0.9877
86       2      -141.3 +j    -18.2      142.4       0.9918
86       3       -40.0 +j     33.0       51.9      -0.7713
   TERMINAL TOTAL  -261.4 +j     27.5      262.9      -0.9945

ELEMENT = "Line.l78"
77       1        82.9 +j   -171.9      190.9      -0.4343
77       2        40.4 +j   -193.7      197.9      -0.2043
77       3        80.8 +j   -172.1      190.1      -0.4250
   TERMINAL TOTAL   204.1 +j   -537.7      575.1      -0.3549
78       1       -82.9 +j    172.0      190.9      -0.4340
78       2       -40.4 +j    193.8      197.9      -0.2041
78       3       -80.7 +j    172.1      190.1      -0.4247
   TERMINAL TOTAL  -204.0 +j    537.9      575.3      -0.3546

ELEMENT = "Line.l79"
78       1        42.5 +j     21.3       47.5       0.8943
78       2        -0.0 +j     -0.0        0.0       0.0619
78       3        -0.0 +j     -0.0        0.0       0.0737
   TERMINAL TOTAL    42.5 +j     21.3       47.5       0.8944
79       1       -42.5 +j    -21.2       47.5       0.8944
79       2        -0.0 +j     -0.0        0.0       0.9763
79       3         0.0 +j     -0.0        0.0      -0.9530
   TERMINAL TOTAL   -42.5 +j    -21.2       47.5       0.8944

ELEMENT = "Line.l80"
78       1        40.4 +j   -193.3      197.4      -0.2045
78       2        40.4 +j   -193.8      197.9      -0.2041
78       3        80.7 +j   -172.1      190.1      -0.4247
   TERMINAL TOTAL   161.5 +j   -559.2      582.0      -0.2775
80       1       -40.2 +j    193.7      197.8      -0.2034
80       2       -40.3 +j    194.1      198.3      -0.2030
80       3       -80.5 +j    172.4      190.3      -0.4231
   TERMINAL TOTAL  -161.0 +j    560.2      582.9      -0.2762

ELEMENT = "Line.l81"
80       1        40.2 +j   -193.7      197.8      -0.2034
80       2         0.3 +j   -214.1      214.1      -0.0012
80       3        80.5 +j   -172.4      190.3      -0.4231
   TERMINAL TOTAL   121.0 +j   -580.2      592.7      -0.2041
81       1       -40.2 +j    193.8      198.0      -0.2029
81       2        -0.2 +j    214.3      214.3      -0.0010
81       3       -80.4 +j    172.5      190.3      -0.4225
   TERMINAL TOTAL  -120.8 +j    580.6      593.1      -0.2037

ELEMENT = "Line.l82"
81       1        40.2 +j   -193.8      198.0      -0.2029
81       2         0.2 +j   -214.3      214.3      -0.0010
81       3        20.2 +j   -202.6      203.7      -0.0993
   TERMINAL TOTAL    60.6 +j   -610.8      613.8      -0.0988
82       1       -40.1 +j    194.0      198.1      -0.2023
82       2        -0.1 +j    214.6      214.6      -0.0005
82       3       -20.1 +j    202.8      203.8      -0.0988
   TERMINAL TOTAL   -60.3 +j    611.4      614.4      -0.0982

ELEMENT = "Line.l83"
81       3         0.1 +j      0.1        0.2       0.7023
   TERMINAL TOTAL     0.1 +j      0.1        0.2       0.7023

ELEMENT = "Line.l84"
82       1         0.1 +j   -214.0      214.0      -0.0004
82       2         0.1 +j   -214.6      214.6      -0.0005
...