123BusV3/ieee123_VLN_Node.Txt

LINE-GROUND and LINE-LINE VOLTAGES BY BUS & NODE

Bus  Node    VLN (kV)   Angle      pu     Base kV    Node-Node   VLL (kV)  Angle      pu

150  1       2.4018 /_    0.0   0.99999     4.160        1-2       4.16 /_   30.0   0.99999
   - 2       2.4018 /_ -120.0   0.99999     4.160        2-3       4.16 /_  -90.0   0.99999
   - 3       2.4018 /_  120.0   0.99999     4.160        3-1       4.16 /_  150.0   0.99999
300  1       2.4018 /_    0.0         1     4.160        1-2       4.16 /_   30.0         1
   - 2       2.4018 /_ -120.0         1     4.160        2-3       4.16 /_  -90.0         1
   - 3       2.4018 /_  120.0         1     4.160        3-1       4.16 /_  150.0         1
150R 1       2.4918 /_    0.0    1.0375     4.160        1-2     4.3159 /_   30.0    1.0375
   - 2       2.4918 /_ -120.0    1.0375     4.160        2-3      4.316 /_  -90.0    1.0375
   - 3       2.4918 /_  120.0    1.0375     4.160        3-1      4.316 /_  150.0    1.0375
149  1       2.4916 /_    0.0    1.0374     4.160        1-2     4.3155 /_   30.0    1.0374
   - 2       2.4917 /_ -120.0    1.0374     4.160        2-3     4.3158 /_  -90.0    1.0374
   - 3       2.4917 /_  120.0    1.0374     4.160        3-1     4.3157 /_  150.0    1.0374
1 .. 1       2.4615 /_   -0.7    1.0248     4.160        1-2     4.2773 /_   29.7    1.0282
   - 2       2.4858 /_ -120.3     1.035     4.160        2-3     4.2936 /_  -90.5    1.0321
   - 3       2.4703 /_  119.6    1.0285     4.160        3-1     4.2767 /_  149.4    1.0281
2 .. 2       2.4853 /_ -120.3    1.0348     4.160
3 .. 3       2.4663 /_  119.6    1.0269     4.160
7 .. 1        2.439 /_   -1.1    1.0155     4.160        1-2     4.2496 /_   29.4    1.0215
   - 2       2.4817 /_ -120.6    1.0333     4.160        2-3     4.2781 /_  -90.8    1.0284
   - 3       2.4565 /_  119.4    1.0228     4.160        3-1     4.2501 /_  149.0    1.0216
4 .. 3       2.4651 /_  119.6    1.0264     4.160
5 .. 3       2.4632 /_  119.6    1.0256     4.160
6 .. 3       2.4616 /_  119.5    1.0249     4.160
8 .. 1       2.4245 /_   -1.4    1.0095     4.160        1-2     4.2314 /_   29.3    1.0172
   - 2       2.4788 /_ -120.7    1.0321     4.160        2-3     4.2678 /_  -91.0    1.0259
   - 3       2.4474 /_  119.2     1.019     4.160        3-1     4.2325 /_  148.7    1.0174
12 . 2       2.4781 /_ -120.7    1.0318     4.160
9 .. 1       2.4209 /_   -1.5     1.008     4.160
13 . 1       2.4052 /_   -1.9    1.0014     4.160        1-2      4.206 /_   29.0    1.0111
   - 2       2.4735 /_ -121.0    1.0299     4.160        2-3     4.2525 /_  -91.3    1.0222
   - 3       2.4338 /_  118.9    1.0133     4.160        3-1     4.2071 /_  148.3    1.0113
9R . 1       2.4209 /_   -1.5     1.008     4.160
14 . 1       2.4169 /_   -1.5    1.0063     4.160
34 . 3       2.4314 /_  118.9    1.0123     4.160
18 . 1       2.3835 /_   -2.3    0.9924     4.160        1-2     4.1751 /_   28.8    1.0036
   - 2       2.4636 /_ -121.2    1.0257     4.160        2-3     4.2246 /_  -91.5    1.0155
   - 3        2.416 /_  118.8    1.0059     4.160        3-1     4.1801 /_  148.0    1.0048
11 . 1       2.4153 /_   -1.5    1.0056     4.160
10 . 1       2.4161 /_   -1.5     1.006     4.160
15 . 3       2.4305 /_  118.9     1.012     4.160
16 . 3       2.4282 /_  118.9     1.011     4.160
17 . 3       2.4294 /_  118.9    1.0115     4.160
19 . 1       2.3804 /_   -2.3   0.99108     4.160
21 . 1       2.3822 /_   -2.4   0.99185     4.160        1-2     4.1729 /_   28.8    1.0031
   - 2       2.4637 /_ -121.2    1.0258     4.160        2-3     4.2227 /_  -91.6    1.0151
   - 3       2.4131 /_  118.8    1.0047     4.160        3-1     4.1771 /_  148.0    1.0041
20 . 1       2.3783 /_   -2.3   0.99023     4.160
22 . 2       2.4603 /_ -121.3    1.0244     4.160
23 . 1       2.3812 /_   -2.4   0.99144     4.160        1-2     4.1713 /_   28.8    1.0027
   - 2       2.4647 /_ -121.2    1.0262     4.160        2-3     4.2219 /_  -91.6    1.0149
   - 3       2.4104 /_  118.8    1.0036     4.160        3-1     4.1746 /_  148.0    1.0035
24 . 3        2.407 /_  118.8    1.0022     4.160
25 . 1       2.3796 /_   -2.5   0.99078     4.160        1-2     4.1695 /_   28.8    1.0023
   - 2       2.4657 /_ -121.2    1.0266     4.160        2-3     4.2212 /_  -91.6    1.0147
   - 3       2.4083 /_  118.8    1.0027     4.160        3-1     4.1726 /_  148.0     1.003
25R  1       2.4094 /_   -2.5    1.0032     4.160
   - 3       2.4083 /_  118.8    1.0027     4.160        3-1     4.1985 /_  148.2    1.0092
26 . 1       2.4088 /_   -2.5    1.0029     4.160
   - 3       2.4071 /_  118.8    1.0022     4.160        3-1     4.1972 /_  148.2    1.0089
28 . 1       2.3787 /_   -2.5   0.99041     4.160        1-2     4.1686 /_   28.8    1.0021
   - 2       2.4663 /_ -121.2    1.0269     4.160        2-3     4.2209 /_  -91.6    1.0146
   - 3       2.4075 /_  118.8    1.0024     4.160        3-1     4.1717 /_  148.0    1.0028
27 . 1       2.4079 /_   -2.5    1.0025     4.160
   - 3        2.407 /_  118.8    1.0022     4.160        3-1      4.197 /_  148.1    1.0089
31 . 3       2.4057 /_  118.8    1.0016     4.160
33 . 1       2.4047 /_   -2.5    1.0012     4.160
29 . 1       2.3783 /_   -2.5   0.99025     4.160        1-2      4.168 /_   28.8    1.0019
   - 2       2.4666 /_ -121.2     1.027     4.160        2-3     4.2205 /_  -91.6    1.0146
   - 3       2.4064 /_  118.8    1.0019     4.160        3-1     4.1707 /_  148.0    1.0026
30 . 1        2.379 /_   -2.5   0.99051     4.160        1-2     4.1681 /_   28.8     1.002
   - 2       2.4665 /_ -121.2     1.027     4.160        2-3     4.2202 /_  -91.6    1.0145
   - 3       2.4053 /_  118.8    1.0015     4.160        3-1     4.1699 /_  148.0    1.0024
250  1        2.379 /_   -2.5   0.99051     4.160        1-2     4.1681 /_   28.8     1.002
   - 2       2.4665 /_ -121.2     1.027     4.160        2-3     4.2202 /_  -91.6    1.0145
   - 3       2.4053 /_  118.8    1.0015     4.160        3-1     4.1699 /_  148.0    1.0024
32 . 3       2.4047 /_  118.8    1.0012     4.160
35 . 1       2.3768 /_   -2.4    0.9896     4.160        1-2     4.1639 /_   28.7    1.0009
   - 2       2.4574 /_ -121.3    1.0232     4.160        2-3     4.2164 /_  -91.6    1.0136
   - 3       2.4134 /_  118.8    1.0048     4.160        3-1     4.1725 /_  147.9     1.003
36 . 1       2.3746 /_   -2.4   0.98868     4.160        1-2     4.1616 /_   28.7    1.0004
   - 2       2.4563 /_ -121.4    1.0227     4.160
40 . 1       2.3732 /_   -2.4   0.98808     4.160        1-2     4.1586 /_   28.7   0.99967
   - 2       2.4547 /_ -121.4     1.022     4.160        2-3     4.2119 /_  -91.6    1.0125
   - 3       2.4108 /_  118.7    1.0038     4.160        3-1     4.1669 /_  147.9    1.0017
37 . 1       2.3727 /_   -2.4   0.98789     4.160
38 . 2       2.4547 /_ -121.4     1.022     4.160
39 . 2       2.4537 /_ -121.4    1.0216     4.160
41 . 3       2.4098 /_  118.7    1.0033     4.160
42 . 1       2.3693 /_   -2.5   0.98649     4.160        1-2     4.1534 /_   28.6   0.99841
   - 2        2.452 /_ -121.4    1.0209     4.160        2-3     4.2074 /_  -91.7    1.0114
   - 3       2.4087 /_  118.7    1.0029     4.160        3-1     4.1617 /_  147.8    1.0004
43 . 2       2.4487 /_ -121.4    1.0196     4.160
44 . 1       2.3667 /_   -2.5    0.9854     4.160        1-2     4.1496 /_   28.6    0.9975
   - 2       2.4503 /_ -121.4    1.0202     4.160        2-3     4.2043 /_  -91.7    1.0106
   - 3       2.4067 /_  118.7    1.0021     4.160        3-1     4.1577 /_  147.8   0.99944
45 . 1       2.3654 /_   -2.5   0.98487     4.160
47 . 1       2.3642 /_   -2.5   0.98436     4.160        1-2     4.1454 /_   28.6    0.9965
   - 2       2.4477 /_ -121.5    1.0191     4.160        2-3     4.2003 /_  -91.7    1.0097
   - 3       2.4043 /_  118.6    1.0011     4.160        3-1     4.1529 /_  147.8   0.99829
46 . 1       2.3645 /_   -2.5   0.98447     4.160
48 . 1       2.3636 /_   -2.5   0.98409     4.160        1-2     4.1443 /_   28.6   0.99622
   - 2        2.447 /_ -121.5    1.0188     4.160        2-3     4.1993 /_  -91.7    1.0095
   - 3       2.4038 /_  118.6    1.0008     4.160        3-1     4.1518 /_  147.8   0.99803
49 . 1       2.3636 /_   -2.5   0.98409     4.160        1-2     4.1437 /_   28.6   0.99609
   - 2       2.4464 /_ -121.5    1.0186     4.160        2-3     4.1988 /_  -91.7    1.0093
   - 3       2.4036 /_  118.6    1.0007     4.160        3-1     4.1513 /_  147.8   0.99791
50 . 1       2.3635 /_   -2.5   0.98407     4.160        1-2     4.1433 /_   28.6   0.99599
   - 2       2.4464 /_ -121.5    1.0186     4.160        2-3     4.1986 /_  -91.7    1.0093
   - 3       2.4028 /_  118.6    1.0004     4.160        3-1     4.1505 /_  147.8   0.99772
51 . 1       2.3631 /_   -2.5    0.9839     4.160        1-2      4.143 /_   28.6   0.99592
   - 2       2.4466 /_ -121.5    1.0187     4.160        2-3     4.1986 /_  -91.7    1.0093
   - 3       2.4027 /_  118.6    1.0004     4.160        3-1     4.1504 /_  147.7   0.99769
151  1       2.3631 /_   -2.5    0.9839     4.160        1-2      4.143 /_   28.6   0.99592
   - 2       2.4466 /_ -121.5    1.0187     4.160        2-3     4.1986 /_  -91.7    1.0093
   - 3       2.4027 /_  118.6    1.0004     4.160        3-1     4.1504 /_  147.7   0.99769
52 . 1       2.3906 /_   -2.3   0.99536     4.160        1-2      4.188 /_   28.8    1.0067
   - 2       2.4705 /_ -121.2    1.0286     4.160        2-3     4.2431 /_  -91.6      1.02
   - 3        2.426 /_  118.6    1.0101     4.160        3-1     4.1903 /_  148.0    1.0073
53 . 1       2.3841 /_   -2.4   0.99263     4.160        1-2     4.1795 /_   28.7    1.0047
   - 2       2.4687 /_ -121.3    1.0278     4.160        2-3     4.2385 /_  -91.7    1.0189
   - 3       2.4221 /_  118.5    1.0085     4.160        3-1     4.1823 /_  147.8    1.0054
54 . 1       2.3804 /_   -2.5   0.99108     4.160        1-2     4.1745 /_   28.6    1.0035
   - 2       2.4673 /_ -121.4    1.0273     4.160        2-3     4.2355 /_  -91.8    1.0181
   - 3       2.4198 /_  118.4    1.0075     4.160        3-1     4.1774 /_  147.7    1.0042
55 . 1       2.3799 /_   -2.5   0.99087     4.160        1-2     4.1741 /_   28.6    1.0034
   - 2       2.4671 /_ -121.4    1.0272     4.160        2-3     4.2352 /_  -91.8    1.0181
   - 3       2.4199 /_  118.4    1.0076     4.160        3-1     4.1772 /_  147.7    1.0041
57 . 1       2.3728 /_   -2.8   0.98792     4.160        1-2       4.16 /_   28.4         1
   - 2       2.4605 /_ -121.6    1.0245     4.160        2-3     4.2244 /_  -92.0    1.0155
   - 3       2.4135 /_  118.2    1.0049     4.160        3-1     4.1672 /_  147.4    1.0017
56 . 1       2.3798 /_   -2.5   0.99084     4.160        1-2     4.1739 /_   28.6    1.0033
   - 2       2.4667 /_ -121.4     1.027     4.160        2-3     4.2349 /_  -91.8     1.018
   - 3       2.4201 /_  118.4    1.0076     4.160        3-1     4.1772 /_  147.7    1.0041
58 . 2        2.459 /_ -121.6    1.0238     4.160
60 . 1       2.3569 /_   -3.5   0.98133     4.160        1-2     4.1299 /_   27.9   0.99278
   - 2       2.4485 /_ -122.0    1.0195     4.160        2-3     4.2027 /_  -92.5    1.0103
   - 3        2.399 /_  117.8   0.99883     4.160        3-1     4.1453 /_  146.8   0.99647
59 . 2       2.4582 /_ -121.6    1.0235     4.160
61 . 1       2.3569 /_   -3.5   0.98133     4.160        1-2     4.1299 /_   27.9   0.99278
   - 2       2.4485 /_ -122.0    1.0195     4.160        2-3     4.2027 /_  -92.5    1.0103
   - 3        2.399 /_  117.8   0.99883     4.160        3-1     4.1453 /_  146.8   0.99647
62 . 1       2.3551 /_   -3.5   0.98056     4.160        1-2     4.1256 /_   27.9   0.99173
   - 2       2.4458 /_ -122.0    1.0183     4.160        2-3     4.1968 /_  -92.5    1.0089
   - 3        2.394 /_  117.8   0.99678     4.160        3-1      4.139 /_  146.9   0.99496
63 . 1       2.3536 /_   -3.5   0.97995     4.160        1-2     4.1226 /_   27.9     0.991
   - 2       2.4437 /_ -122.0    1.0175     4.160        2-3     4.1933 /_  -92.5     1.008
   - 3       2.3916 /_  117.7   0.99577     4.160        3-1     4.1352 /_  146.9   0.99405
64 . 1       2.3529 /_   -3.5   0.97963     4.160        1-2     4.1177 /_   27.9   0.98983
   - 2       2.4392 /_ -122.0    1.0156     4.160        2-3     4.1863 /_  -92.5    1.0063
   - 3       2.3864 /_  117.7   0.99361     4.160        3-1      4.129 /_  146.9   0.99254
65 . 1       2.3512 /_   -3.5   0.97894     4.160        1-2     4.1145 /_   27.9   0.98906
   - 2       2.4384 /_ -121.9    1.0152     4.160        2-3     4.1804 /_  -92.5    1.0049
   - 3       2.3792 /_  117.7    0.9906     4.160        3-1     4.1213 /_  146.9    0.9907
66 . 1       2.3518 /_   -3.5   0.97918     4.160        1-2     4.1144 /_   27.9   0.98904
   - 2        2.439 /_ -121.9    1.0155     4.160        2-3     4.1783 /_  -92.5    1.0044
   - 3       2.3756 /_  117.7   0.98909     4.160        3-1     4.1191 /_  146.9   0.99017
67 . 1       2.4701 /_   -3.8    1.0285     4.160        1-2     4.2497 /_   27.1    1.0216
   - 2       2.4769 /_ -122.2    1.0313     4.160        2-3     4.2868 /_  -92.3    1.0305
   - 3       2.4687 /_  117.6    1.0279     4.160        3-1     4.3072 /_  146.9    1.0354
68 . 1       2.4664 /_   -3.8    1.0269     4.160
72 . 1       2.4711 /_   -3.9    1.0288     4.160        1-2     4.2488 /_   26.9    1.0213
   - 2       2.4748 /_ -122.3    1.0304     4.160        2-3     4.2849 /_  -92.4      1.03
   - 3       2.4682 /_  117.5    1.0277     4.160        3-1      4.307 /_  146.8    1.0353
97 . 1       2.4677 /_   -3.8    1.0275     4.160        1-2      4.246 /_   27.0    1.0207
   - 2       2.4757 /_ -122.2    1.0308     4.160        2-3     4.2842 /_  -92.4    1.0299
   - 3        2.467 /_  117.6    1.0272     4.160        3-1     4.3042 /_  146.9    1.0347
69 . 1       2.4622 /_   -3.8    1.0252     4.160
70 . 1       2.4592 /_   -3.9    1.0239     4.160
71 . 1       2.4575 /_   -3.9    1.0232     4.160
73 . 3        2.463 /_  117.5    1.0255     4.160
76 . 1       2.4708 /_   -3.9    1.0287     4.160        1-2     4.2482 /_   26.8    1.0212
   - 2       2.4735 /_ -122.4    1.0299     4.160        2-3     4.2841 /_  -92.5    1.0298
   - 3       2.4697 /_  117.5    1.0283     4.160        3-1     4.3084 /_  146.8    1.0357
74 . 3       2.4586 /_  117.4    1.0237     4.160
75 . 3       2.4561 /_  117.4    1.0226     4.160
77 . 1       2.4736 /_   -4.0    1.0299     4.160        1-2     4.2533 /_   26.8    1.0224
   - 2       2.4763 /_ -122.5     1.031     4.160        2-3     4.2883 /_  -92.6    1.0308
   - 3       2.4718 /_  117.4    1.0291     4.160        3-1     4.3124 /_  146.7    1.0366
86 . 1       2.4687 /_   -4.0    1.0278     4.160        1-2     4.2457 /_   26.7    1.0206
   - 2       2.4693 /_ -122.6    1.0281     4.160        2-3     4.2805 /_  -92.5     1.029
   - 3       2.4731 /_  117.4    1.0297     4.160        3-1     4.3094 /_  146.7    1.0359
78 . 1       2.4743 /_   -4.0    1.0302     4.160        1-2     4.2547 /_   26.8    1.0228
   - 2       2.4773 /_ -122.5    1.0314     4.160        2-3     4.2895 /_  -92.6    1.0311
   - 3       2.4722 /_  117.4    1.0293     4.160        3-1     4.3133 /_  146.7    1.0369
79 . 1       2.4736 /_   -4.0    1.0299     4.160        1-2     4.2541 /_   26.8    1.0226
   - 2       2.4776 /_ -122.5    1.0316     4.160        2-3     4.2895 /_  -92.6    1.0311
   - 3       2.4721 /_  117.4    1.0293     4.160        3-1     4.3131 /_  146.7    1.0368
80 . 1       2.4793 /_   -4.1    1.0323     4.160        1-2     4.2624 /_   26.7    1.0246
   - 2       2.4813 /_ -122.6    1.0331     4.160        2-3     4.2958 /_  -92.7    1.0326
   - 3       2.4742 /_  117.3    1.0302     4.160        3-1     4.3185 /_  146.6    1.0381
81 . 1       2.4812 /_   -4.1     1.033     4.160        1-2     4.2654 /_   26.7    1.0253
   - 2       2.4833 /_ -122.6     1.034     4.160        2-3     4.2986 /_  -92.7    1.0333
   - 3       2.4747 /_  117.2    1.0304     4.160        3-1     4.3203 /_  146.6    1.0385
82 . 1       2.4832 /_   -4.2    1.0339     4.160        1-2     4.2696 /_   26.6    1.0264
   - 2       2.4864 /_ -122.6    1.0352     4.160        2-3     4.3028 /_  -92.8    1.0343
   - 3       2.4765 /_  117.2    1.0311     4.160        3-1     4.3238 /_  146.6    1.0394
84 . 3       2.4685 /_  117.2    1.0278     4.160
83 . 1        2.486 /_   -4.2    1.0351     4.160        1-2     4.2745 /_   26.6    1.0275
   - 2       2.4891 /_ -122.6    1.0363     4.160        2-3     4.3072 /_  -92.8    1.0354
   - 3       2.4785 /_  117.1    1.0319     4.160        3-1     4.3275 /_  146.5    1.0403
85 . 3       2.4655 /_  117.1    1.0265     4.160
87 . 1       2.4674 /_   -4.0    1.0273     4.160        1-2     4.2444 /_   26.7    1.0203
   - 2       2.4674 /_ -122.7    1.0273     4.160        2-3     4.2785 /_  -92.6    1.0285
   - 3       2.4744 /_  117.4    1.0302     4.160        3-1     4.3096 /_  146.7     1.036
88 . 1       2.4673 /_   -4.0    1.0273     4.160
89 . 1       2.4664 /_   -4.0    1.0269     4.160        1-2     4.2441 /_   26.7    1.0202
   - 2       2.4667 /_ -122.7     1.027     4.160        2-3      4.278 /_  -92.6    1.0284
   - 3       2.4754 /_  117.4    1.0306     4.160        3-1     4.3091 /_  146.6    1.0359
90 . 2       2.4665 /_ -122.7     1.027     4.160
91 . 1       2.4659 /_   -4.0    1.0267     4.160        1-2     4.2434 /_   26.7      1.02
   - 2        2.466 /_ -122.7    1.0267     4.160        2-3     4.2778 /_  -92.6    1.0283
   - 3       2.4759 /_  117.4    1.0308     4.160        3-1     4.3088 /_  146.6    1.0358
92 . 3       2.4757 /_  117.3    1.0308     4.160
93 . 1       2.4651 /_   -4.0    1.0264     4.160        1-2     4.2426 /_   26.6    1.0199
   - 2       2.4656 /_ -122.7    1.0266     4.160        2-3     4.2772 /_  -92.6    1.0282
   - 3       2.4761 /_  117.4    1.0309     4.160        3-1     4.3086 /_  146.6    1.0357
94 . 1       2.4634 /_   -4.0    1.0257     4.160
95 . 1        2.465 /_   -4.0    1.0263     4.160        1-2     4.2423 /_   26.6    1.0198
   - 2       2.4646 /_ -122.7    1.0262     4.160        2-3     4.2765 /_  -92.6     1.028
   - 3       2.4765 /_  117.4    1.0311     4.160        3-1     4.3086 /_  146.6    1.0357
96 . 2        2.464 /_ -122.8    1.0259     4.160
98 . 1       2.4672 /_   -3.8    1.0273     4.160        1-2     4.2449 /_   27.0    1.0204
   - 2       2.4751 /_ -122.2    1.0305     4.160        2-3     4.2833 /_  -92.4    1.0296
   - 3       2.4665 /_  117.6    1.0269     4.160        3-1     4.3034 /_  146.9    1.0345
99 . 1       2.4679 /_   -3.8    1.0275     4.160        1-2     4.2443 /_   27.0    1.0203
   - 2       2.4731 /_ -122.2    1.0297     4.160        2-3     4.2815 /_  -92.4    1.0292
   - 3       2.4657 /_  117.6    1.0266     4.160        3-1     4.3022 /_  146.9    1.0342
100  1       2.4684 /_   -3.8    1.0277     4.160        1-2     4.2443 /_   27.0    1.0203
   - 2        2.473 /_ -122.2    1.0296     4.160        2-3     4.2812 /_  -92.4    1.0291
   - 3       2.4647 /_  117.5    1.0262     4.160        3-1     4.3015 /_  146.9     1.034
450  1       2.4684 /_   -3.8    1.0277     4.160        1-2     4.2443 /_   27.0    1.0203
   - 2        2.473 /_ -122.2    1.0296     4.160        2-3     4.2812 /_  -92.4    1.0291
   - 3       2.4647 /_  117.5    1.0262     4.160        3-1     4.3015 /_  146.9     1.034
197  1       2.4677 /_   -3.8    1.0274     4.160        1-2     4.2459 /_   27.0    1.0206
   - 2       2.4757 /_ -122.2    1.0308     4.160        2-3     4.2842 /_  -92.4    1.0298
   - 3        2.467 /_  117.6    1.0271     4.160        3-1     4.3042 /_  146.9    1.0347
101  1       2.4657 /_   -3.9    1.0266     4.160        1-2      4.243 /_   27.0      1.02
   - 2        2.475 /_ -122.2    1.0305     4.160        2-3     4.2824 /_  -92.4    1.0294
   - 3       2.4657 /_  117.6    1.0266     4.160        3-1     4.3021 /_  146.9    1.0341
102  3       2.4622 /_  117.6    1.0252     4.160
105  1       2.4625 /_   -3.9    1.0253     4.160        1-2     4.2401 /_   27.0    1.0192
   - 2       2.4747 /_ -122.3    1.0303     4.160        2-3      4.281 /_  -92.4    1.0291
   - 3       2.4663 /_  117.6    1.0269     4.160        3-1     4.3013 /_  146.8     1.034
103  3       2.4582 /_  117.5    1.0235     4.160
104  3       2.4538 /_  117.5    1.0217     4.160
106  2       2.4719 /_ -122.3    1.0292     4.160
108  1        2.459 /_   -4.0    1.0238     4.160        1-2     4.2371 /_   27.0    1.0185
   - 2       2.4762 /_ -122.3     1.031     4.160        2-3     4.2809 /_  -92.4    1.0291
   - 3        2.466 /_  117.7    1.0267     4.160        3-1     4.3002 /_  146.8    1.0337
107  2       2.4684 /_ -122.3    1.0277     4.160
109  1       2.4491 /_   -4.1    1.0197     4.160
110  1       2.4443 /_   -4.1    1.0177     4.160
111  1       2.4426 /_   -4.1     1.017     4.160
112  1       2.4428 /_   -4.1    1.0171     4.160
113  1       2.4377 /_   -4.2     1.015     4.160
114  1       2.4367 /_   -4.2    1.0146     4.160
135  1       2.3835 /_   -2.3   0.99238     4.160        1-2     4.1749 /_   28.8    1.0036
   - 2       2.4635 /_ -121.2    1.0257     4.160        2-3     4.2245 /_  -91.5    1.0155
   - 3       2.4159 /_  118.8    1.0059     4.160        3-1       4.18 /_  148.0    1.0048
152  1       2.4051 /_   -1.9    1.0014     4.160        1-2     4.2059 /_   29.0     1.011
   - 2       2.4735 /_ -121.0    1.0299     4.160        2-3     4.2524 /_  -91.3    1.0222
   - 3       2.4338 /_  118.9    1.0133     4.160        3-1      4.207 /_  148.3    1.0113
160R 1       2.4748 /_   -3.5    1.0304     4.160        1-2     4.2572 /_   27.3    1.0234
   - 2       2.4791 /_ -122.0    1.0322     4.160        2-3     4.2942 /_  -92.2    1.0322
   - 3        2.474 /_  117.8    1.0301     4.160        3-1     4.3134 /_  147.1    1.0369
160  1       2.3569 /_   -3.5   0.98133     4.160        1-2     4.1299 /_   27.9   0.99277
   - 2       2.4485 /_ -122.0    1.0195     4.160        2-3     4.2027 /_  -92.5    1.0103
   - 3        2.399 /_  117.8   0.99884     4.160        3-1     4.1453 /_  146.8   0.99648
61S  1       2.3569 /_   -3.5   0.98133     4.160        1-2     4.1299 /_   27.9   0.99278
   - 2       2.4485 /_ -122.0    1.0195     4.160        2-3     4.2027 /_  -92.5    1.0103
   - 3        2.399 /_  117.8   0.99883     4.160        3-1     4.1453 /_  146.8   0.99647
610  1      0.27418 /_   -2.7   0.98936     0.480        1-2    0.47653 /_   27.9   0.99278
   - 2      0.27803 /_ -122.0    1.0032     0.480        2-3    0.48492 /_  -92.5    1.0103
   - 3      0.27904 /_  117.0    1.0069     0.480        3-1    0.47831 /_  146.8   0.99647
